Circuit: * C:\Users\User\Desktop\Xi410_Temp_Probe converter\Xi410_Temp_Probe\simulation\Ian_ADT7422_Converter.asc

Limiting rise time of source v4 to 8e-006
Limiting fall time of source v4 to 8e-006
Direct Newton iteration for .op point succeeded.

Date: Mon Jan 15 14:57:31 2024
Total elapsed time: 10.105 seconds.

tnom = 27
temp = 27
method = modified trap
totiter = 376853
traniter = 376832
tranpoints = 132598
accept = 98271
rejected = 34327
matrix size = 19
fillins = 2
solver = Normal
Matrix Compiler1: 1.25 KB object code size  0.2/0.1/[0.1]
Matrix Compiler2: off  [0.1]/0.2/0.1


