Circuit: * C:\Users\User\Desktop\Xi410_Temp_Probe converter\Xi410_Temp_Probe\simulation\PWM_To_0-10V_Converter.asc

Limiting rise time of source v3 to 1e-006
Limiting fall time of source v3 to 1e-006
Direct Newton iteration failed to find .op point.  (Use ".option noopiter" to skip.)
Starting Gmin stepping
Gmin = 10
Gmin = 1.07374
Gmin = 0.115292
Gmin = 0.0123794
Gmin = 0.00132923
Gmin = 0.000142725
Gmin = 1.5325e-005
Gmin = 1.6455e-006
Gmin = 1.76685e-007
Gmin = 1.89714e-008
Gmin = 2.03704e-009
Gmin = 2.18725e-010
Gmin = 2.34854e-011
Gmin = 2.52173e-012
Gmin = 2.70769e-013
Gmin = 0
Gmin stepping succeeded in finding the operating point.


Date: Mon Jan 15 16:04:09 2024
Total elapsed time: 1.002 seconds.

tnom = 27
temp = 27
method = modified trap
totiter = 85692
traniter = 85051
tranpoints = 34483
accept = 25589
rejected = 8894
matrix size = 68
fillins = 85
solver = Normal
Matrix Compiler1: 7.08 KB object code size  1.0/0.5/[0.3]
Matrix Compiler2: 6.86 KB object code size  0.8/0.7/[0.6]


